# Name file for MODFLOW-2005, generated by Flopy version 3.3.6.
#None; start_datetime:None
LIST               2  BS_CFP_v1.list

