# PCG package for MODFLOW-2005 generated by Flopy 3.3.6
40 10 2 9999
12000 10000 0.97 2 5 0 1.0 
